Version 4
SHEET 1 1160 680
WIRE 352 -160 352 -176
WIRE 480 -144 400 -144
WIRE 480 -112 480 -144
WIRE 112 64 -80 64
WIRE 352 64 352 16
WIRE 352 64 192 64
WIRE 416 64 352 64
WIRE 352 112 352 64
WIRE 304 128 288 128
WIRE -80 144 -80 64
WIRE -16 144 -80 144
WIRE 144 160 48 160
WIRE 288 160 288 128
WIRE 288 160 224 160
WIRE -16 176 -144 176
WIRE 416 208 352 208
WIRE 352 224 352 208
WIRE 352 336 352 304
FLAG 16 192 0
FLAG -48 0 0
FLAG -48 -80 Vcc
FLAG 16 128 Vcc
FLAG 352 336 0
FLAG 352 -176 Vcc
FLAG 480 -32 0
FLAG -144 256 0
FLAG 416 64 Vref
FLAG 416 208 Vout
SYMBOL voltage -48 -96 R0
WINDOW 123 0 0 Left 0
WINDOW 39 0 0 Left 0
SYMATTR InstName V1
SYMATTR Value 5
SYMBOL res 336 -80 R0
SYMATTR InstName R1
SYMATTR Value 120
SYMBOL res 336 208 R0
SYMATTR InstName R2
SYMATTR Value {Rtest}
SYMBOL pmos 400 -64 R180
SYMATTR InstName M1
SYMATTR Value FDS4685
SYMBOL res 464 -128 R0
SYMATTR InstName R3
SYMATTR Value 1k
SYMBOL res 240 144 R90
WINDOW 0 0 56 VBottom 2
WINDOW 3 32 56 VTop 2
SYMATTR InstName R4
SYMATTR Value 1k
SYMBOL res 208 48 R90
WINDOW 0 0 56 VBottom 2
WINDOW 3 32 56 VTop 2
SYMATTR InstName R6
SYMATTR Value 1k
SYMBOL voltage -144 160 R0
WINDOW 123 0 0 Left 0
WINDOW 39 0 0 Left 0
SYMATTR InstName V2
SYMATTR Value 2.5
SYMBOL OpAmps\\opamp2 16 96 R0
SYMATTR InstName U2
SYMATTR Value MCP6231
SYMBOL pmos 304 208 M180
SYMATTR InstName M2
SYMATTR Value FDS4685
TEXT -96 360 Left 2 !.tran 0 10m 100u 100u
TEXT 608 88 Left 2 !.step param Rtest 1e-12 115 40
TEXT 656 272 Left 2 !.lib MCP6231.txt
TEXT 528 -264 Left 2 !.options cshunt=1e-15
TEXT -1072 -40 Left 2 ;Objective: RTD measurement device. In other words, it should calculate the resistance.\nThis is possible by applying a constant current source to Rtest and using the voltage\nreference used for the current source as the reference for a differential ADC. This\neffectively translates the ADC from a voltage sensing to a resistor sensing ADC.\n \nConditions: Vsupply must be double of Vref, minimum Vref is 2.5V (as per the ADC),\nand voltages measured in the ADC must be between 0 and vref in both differential inputs
TEXT 544 208 Left 2 ;Rout =120Ohms*Vout/Vref
